<?xml version="1.0" encoding="UTF-8"?>
<routes>
    <!-- Simple route definitions for 4-intersection corridor -->
    <vType id="car" accel="2.0" decel="4.5" sigma="0.5" length="5" maxSpeed="13.9" color="1,0,0"/>
    <route id="r1" edges="e1 e2 e3"/>
    <route id="r2" edges="e3 e2 e1"/>
    <vehicle id="veh1" type="car" route="r1" depart="0"/>
    <vehicle id="veh2" type="car" route="r2" depart="10"/>
    <vehicle id="veh3" type="car" route="r1" depart="20"/>
    <vehicle id="veh4" type="car" route="r2" depart="30"/>
</routes>
